%mem=100GB
%nprocshared=28
%chk=s0-H.chk
# opt b3lyp/6-31g(d,p) pop=min scf=(xqc,tight)

Complex s203-azi

1 1
 N                  3.99111742    5.80994925    2.27848675
 H                  4.75044068    6.41764568    2.04591699
 C                  2.84555650    6.61052504    2.73440150
 H                  2.03194834    5.96126493    2.98224400
 C                  3.24944041    7.42415033    3.97786066
 C                  2.41414037    7.56978980    1.60998437
 H                  3.55022002    6.75694078    4.75847260
 H                  4.06316771    8.07342907    3.73047099
 O                  2.13501594    8.20350653    4.41991368
 O                  2.58437542    7.24238269    0.40689924
 H                  2.38662481    8.71081035    5.19506114
 N                  1.80524173    8.86722272    1.93709012
 H                  1.30066085    8.79363167    2.79726793
 C                  0.88650141    9.25746413    0.85856989
 H                  1.42897314    9.32749110   -0.06119281
 C                 -0.22398958    8.19932448    0.72148469
 C                  0.25597938   10.62411740    1.18447430
 H                  0.21391817    7.25024410    0.49261022
 H                 -0.76565933    8.12960103    1.64161444
 O                 -1.11656773    8.57846027   -0.32954310
 O                  0.89136092   11.46345694    1.87418530
 H                 -1.80906133    7.91907584   -0.41471620
 N                 -1.08775187   10.94753220    0.68465153
 H                 -1.01150524   11.36507011   -0.22081463
 C                 -1.74594975   11.89112728    1.59974127
 H                 -1.83784435   11.44780832    2.56924533
 C                 -0.90497663   13.17700410    1.70285526
 C                 -3.14377395   12.23445140    1.05290172
 H                  0.06767568   12.93773439    2.07923039
 C                 -0.77290082   13.81746807    0.30870273
 C                 -1.59605837   14.16703168    2.65880426
 O                 -3.78414093   11.38048353    0.38665680
 H                 -1.74565605   14.05668910   -0.06742544
 H                 -0.18863988   14.71098812    0.38063940
 H                 -0.29274267   13.12985942   -0.35573713
 H                 -2.09550417   14.92293723    2.08952259
 H                 -2.30976898   13.64337999    3.25992665
 C                 -0.54097146   14.82273740    3.56893634
 H                  0.17275164   15.34631130    2.96778067
 H                 -1.02090269   15.51073460    4.23320923
 H                 -0.04164696   14.06671325    4.13819234
 N                 -3.72947237   13.55915246    1.30257915
 H                 -3.40231294   13.91072065    2.17990153
 C                 -5.19527456   13.45351108    1.33190233
 H                 -5.54214993   13.06040136    0.39926350
 C                 -5.62305449   12.51508673    2.47579793
 C                 -5.80214537   14.85081613    1.55423835
 H                 -5.55196741   11.49881793    2.14881190
 C                 -4.69868791   12.73015899    3.68861617
 C                 -7.07701158   12.82451644    2.87806149
 O                 -5.18879889   15.87105158    1.14587829
 H                 -4.76977546   13.74656247    4.01544579
 H                 -4.99571062   12.07833274    4.48346452
 H                 -3.68835439   12.51506852    3.40962774
 H                 -7.71965082   12.67521128    2.03575573
 H                 -7.37352277   12.17248155    3.67298849
 H                 -7.14800997   13.84084530    3.20517348
 N                 -7.09470073   15.00113197    2.23715103
 H                 -7.65820471   14.19145588    2.07242855
 C                 -7.77636205   16.19177891    1.70982384
 H                 -7.17066487   17.05589314    1.88650122
 C                 -8.00003549   16.02129509    0.19559443
 C                 -9.13598103   16.36944756    2.41127596
 H                 -7.05560480   15.90140016   -0.29300099
 H                 -8.60507508   15.15659599    0.01945925
 O                 -8.66089153   17.17882940   -0.32218893
 O                 -9.76563426   15.36623097    2.83660802
 H                 -8.80009503   17.07243818   -1.26614475
 N                 -9.69408239   17.71926663    2.57884185
 H                 -8.94618757   18.37696819    2.66762179
 C                -10.53300379   17.76812105    3.78505000
 H                -11.33875477   17.07099278    3.68856429
 C                 -9.68604039   17.40375370    5.01860326
 C                -11.09895492   19.19115789    3.94968949
 H                 -9.29308744   16.41543947    4.90152218
 H                 -8.87888047   18.09938172    5.11536898
 C                -10.56641655   17.46034094    6.28120016
 O                -11.30685172   19.90353029    2.93328737
 C                 -9.99711508   17.79058683    7.51860815
 C                -11.93697482   17.18182189    6.19255591
 H                 -8.95043502   18.00238910    7.58666312
 C                -10.79875827   17.84313016    8.66694283
 C                -12.73855659   17.23524188    7.34072514
 H                -12.37136537   16.92834406    5.24806733
 H                -10.36419618   18.09475274    9.61186702
 C                -12.16959371   17.56628477    8.57776822
 H                -13.78500794   17.02339008    7.27280836
 H                -12.78176192   17.60747254    9.45428607
 N                -11.39657355   19.72253804    5.28743819
 H                -11.66753503   18.97411089    5.89254373
 C                -12.49112010   20.69922404    5.18702599
 H                -12.19602454   21.49684030    4.53771097
 C                -13.74540898   20.01109569    4.61633353
 C                -12.80678982   21.26516155    6.58408152
 H                -13.52452863   19.61188915    3.64835591
 H                -14.04557992   19.21797168    5.26885499
 C                -14.88491076   21.04086853    4.49766231
 O                -12.62480103   20.55479557    7.60692596
 C                -16.21936220   20.63136160    4.62415515
 C                -14.58547708   22.38943669    4.26160653
 H                -16.44847110   19.60206385    4.80628439
 C                -17.25397347   21.57052661    4.51152878
 C                -15.61970007   23.32811587    4.14896793
 H                -13.56662076   22.70218909    4.16677749
 H                -18.27286033   21.25817118    4.60771544
 C                -16.95404284   22.91868789    4.27270924
 H                -15.39044749   24.35745112    3.96823974
 O                -18.00925762   23.87667190    4.15484320
 H                -18.75551008   23.59878105    4.69069191
 C                  4.40861624    4.89383262    3.34916092
 O                  3.56149414    4.45808178    4.17134760
 C                  5.88405600    4.46756000    3.46382648
 H                  6.33088223    4.46434629    2.49151742
 H                  6.40643566    5.15659478    4.09411234
 H                  5.94005511    3.48568663    3.88530272
 N                -13.32062321   22.63569045    6.72227259
 H                -13.90679684   22.69222531    7.53053108
 H                -12.55431895   23.27047066    6.82122619
 H                  3.99580923    3.82026091    5.37480558

